$DATA1 SOURCE='HSPICERF' VERSION='D-2010.03'
.TITLE '*OMAMP OPTIMIZATION'
 gain gm phase pm ugf ugf_actual temper alter#
  5.9671436377e+01	  2.6727374669e+01	  -1.2561795029e+02	  5.4382049705e+01	  1.2897050074e+00	  1.2897050074e+06	
     27.000000 1
