$DATA1 SOURCE='HSPICERF' VERSION='D-2010.03'
.TITLE '*OMAMP OPTIMIZATION'
 iq temper alter#
  1.2439286004e+02	     27.000000 1
