$DATA1 SOURCE='HSPICERF' VERSION='D-2010.03'
.TITLE '*OMAMP OPTIMIZATION'
 srf srf_actual srr srr_actual vomax vomin temper alter#
  4.1911667345e-01	  -4.1911667345e+05	  1.8965993386e-01	  1.8965993386e+05	  1.3145882943e+00	  7.2025206887e-01	
     27.000000 1
